Circuit: * C:\Users\rober\Documents\Japanisch\git\robfil.github.io\scripts\nIn1\dcdc\schematics\buck_400V_48V.asc

Limiting rise time of source v2 to 2.4e-07
Limiting fall time of source v2 to 2.4e-07
Direct Newton iteration for .op point succeeded.

duty: AVG(v(n002) > 390)=0.12 FROM 0.0025 TO 0.0045
vout_pp: PP(v(n003))=0.238229 FROM 0.0025 TO 0.0045
il_max: MAX(i(l1))=24.1253 FROM 0.0025 TO 0.0045
il_min: MIN(i(l1))=17.7725 FROM 0.0025 TO 0.0045
il_pp: PP(i(l1))=6.35277 FROM 0.0025 TO 0.0045


Date: Tue Dec 30 13:20:13 2025
Total elapsed time: 0.312 seconds.

tnom = 27
temp = 27
method = modified trap
totiter = 55073
traniter = 55068
tranpoints = 21031
accept = 16770
rejected = 4261
matrix size = 6
fillins = 0
solver = Normal
Avg thread counts: 1.0/1.0/1.0/1.0
Matrix Compiler1: off  [0.1]/0.1/0.1
Matrix Compiler2: 320 bytes object code size  0.1/0.1/[0.1]

